include ./omnetpp.ini
include ./include/seed.ini
include ./include/churn.ini
include ./include/membership.ini

# includes for GT-ITM & BRITE topologies
#include ./GTITM_TS_InetUnderlay.ned-ASIDs.ini
#include ./GTITM_TS_InetUnderlay-Config.ini

[Config Donet_oneRouter_overlayAttack]
#
# ----- Network -----
#
# ------------- new Inet Underlay ---------------
#network = RouterLine
#network = GTITM_e1212
#network = Network20
*.nPeers = 15
#*.nRouter = 4
**.noneTransitNodesAccessRouters = true
**.minAccessDelay = 1
**.maxAccessDelay = 60

# ------------- One router network --------------
network = Donet_Homo_oneRouter_Network
*.nNodePerRouter = 15


#
# ----- Simulation time -----
#
sim-time-limit = 100s
#warmup-period = 50s

# Controlling the log output
cmdenv-express-mode = true
#cmdenv-express-mode = false
#record-eventlog = true

repeat = 1

# -----------------------------
# ------- Recording -----------
# -----------------------------
#
# -------- Scalar --------
#
**.globalStatistic.**.scalar-recording = true
**.mesh.**.scalar-recording = true
**.attacker.**.scalar-recording = true
#**.globalStatistic.**.scalar-recording = false

**.scalar-recording = false
#**.scalar-recording = true

#
# -------- Vector --------
#
#**.globalStatistic.**.vector-recording = true
#**.mesh.**.vector-recording = true
#**.attacker.**.vector-recording = true
#**.activePeerTable.aptSize.vector-recording = true
#**.queue.vector-recording = false
#**.player.vector-recording = true
#**.chunkGenerator.vector-recording = true
#**.videoBuffer.vector-recording = true
#**.churnModerator.vector-recording = true
#**.gossip.vector-recording = true

#**.vector-recording = true
**.vector-recording = false

#
# ----- Start times -----
#
*.sourceNode[*].peerApp.chunkGenerator.videoStartTime = 0s
*.sourceNode[*].peerApp.mesh.startTime = 0s
*.peerNode[*].peerApp.mesh.startTime = uniform(1s, 1.001s)


#
# ----- Statistics -----
#
*.statisticModule = "DonetStatistic"

*.globalStatistic.gstatLog = "/nix/workspace/omnet422-inet118/so/simulations/results/gstatlog.txt"
*.globalStatistic.interval_reportCI = 1.0s
*.globalStatistic.interval_reportSystemSize = 1.0s

*.activePeerTable.interval_reportSize = 1.0s

#
# ------- AppSettings: Video Streaming -----
#
*.appSetting.bufferMapSize = 30s
*.appSetting.chunkSize = 1250B
*.appSetting.videoStreamBitRate = 500kbps
*.appSetting.interval_bufferMap = 0.5s

# -----------------------------
# Node settings
# -----------------------------
**.localPort = 9000
**.destPort = 9000

#
# ----- Source Node -----
#
*.sourceNode.peerApp.mesh.maxNOP = 4
*.sourceNode.peerApp.mesh.threshold_idleDuration_buffermap = 10.0s
*.sourceNode.peerApp.mesh.interval_partnerlistCleanup = 5.0s

#
# ----- Peer nodes -----
#
*.peerNode[*].peerApp.mesh.maxNOP = 5
*.peerNode[*].peerApp.mesh.offsetNOP = 3

*.peerNode[*].peerApp.mesh.requestFactor_moderate = 1.2
*.peerNode[*].peerApp.mesh.requestFactor_aggressive = 2.4
*.peerNode[*].peerApp.mesh.interval_chunkScheduling = 1.0s
*.peerNode[*].peerApp.mesh.interval_rejoin = 5s
*.peerNode[*].peerApp.mesh.interval_timeout_joinReqAck = 2s
*.peerNode[*].peerApp.player.interval_recheckVideoBuffer = 0.5s
*.peerNode[*].peerApp.mesh.threshold_scarity = 3

*.peerNode[*].peerApp.mesh.interval_findMorePartner = 2.0s
#*.peerNode[*].peerApp.mesh.interval_waitingPartnershipResponse = 3s # Patient behavior :)
*.peerNode[*].peerApp.mesh.interval_startPlayer = 0.5s

*.peerNode[*].peerApp.mesh.factor_requestList = 4

*.peerNode[*].peerApp.mesh.interval_partnershipRefinement = 1.0s
*.peerNode[*].peerApp.mesh.interval_partnerlistCleanup = 5.0s
*.peerNode[*].peerApp.mesh.threshold_idleDuration_buffermap = 10.0s

*.peerNode[*].peerApp.mesh.interval_reportStatistic = 1s
*.peerNode[*].peerApp.mesh.interval_reportActive = 1.0s

#
# ----- Player settings -----
#
*.peerNode[*].peerApp.player.percent_buffer_low = 0.1
*.peerNode[*].peerApp.player.percent_buffer_high = 0.2
*.peerNode[*].peerApp.player.max_skipped_chunk = 3
*.peerNode[*].peerApp.player.interval_probe_playerStart = 0.5s

#
# ----- Playing with the Queue in PPP modules -----
#
*.router.ppp[*].queue.frameCapacity = 1000


#
# ----- Topology observer -----
#
*.topoObserver.outputFilename = "/tmp/edgeList.dat"
*.topoObserver.sourceAddress = "192.168.0.1"
*.topoObserver.observeTime = 6s

# -- inherited parameters --> might not be used
*.topoObserver.socketExport = false
*.topoObserver.sendPort = 5678
*.topoObserver.streamStripes = 0
*.topoObserver.lossMinStripes = 0

#
# ----- Attacker -----
#
*.attacker.start = 40s
*.attacker.stop = 80s
*.attacker.interval = 5s
*.attacker.numAttack = 3

# -- not used right now
#*.attacker.percentage = 0.1
#*.attacker.rejoin = false


# ---------------------- end of configuration file ---------------------------------
